
     RDKit          3D

 26 26  0  0  0  0  0  0  0  0999 V2000
   -0.7474   -3.9143    4.2831 C   0  0  0  0  0  0  0  0  0  1  0  0
   -0.4354   -2.7031    3.6215 O   0  0  0  0  0  0  0  0  0  2  0  0
    0.1409   -4.1648    4.8619 H   0  0  0  0  0  0  0  0  0  3  0  0
   -0.9624   -4.7052    3.5624 H   0  0  0  0  0  0  0  0  0  4  0  0
   -1.5969   -3.7763    4.9519 H   0  0  0  0  0  0  0  0  0  5  0  0
   -1.6051   -2.3098    2.9291 O   0  0  0  0  0  0  0  0  0  6  0  0
    1.4172   -4.1617    0.5009 O   0  0  0  0  0  0  0  0  0  7  0  0
    0.6626   -3.2856    0.8497 C   0  0  0  0  0  0  0  0  0  8  0  0
   -0.7608   -3.3165    0.9196 C   0  0  0  0  0  3  0  0  0  9  0  0
   -1.2659   -2.0758    1.5459 C   0  0  0  0  0  0  0  0  0 10  0  0
   -0.0191   -1.1649    1.4318 C   0  0  0  0  0  0  0  0  0 11  0  0
   -0.0370   -0.2167    0.2339 C   0  0  0  0  0  0  0  0  0 12  0  0
    1.1907    0.6828    0.2915 C   0  0  0  0  0  0  0  0  0 13  0  0
    1.0859   -2.0673    1.2548 O   0  0  0  0  0  0  0  0  0 14  0  0
   -1.5410   -4.3078    0.5608 O   0  0  0  0  0  0  0  0  0 15  0  0
    1.1958    1.5683   -0.8055 O   0  0  0  0  0  0  0  0  0 16  0  0
   -0.0975   -0.9302   -0.9786 O   0  0  0  0  0  0  0  0  0 17  0  0
   -1.0363   -5.0173    0.1290 H   0  0  0  0  0  0  0  0  0 18  0  0
   -2.4141   -1.5424    1.0281 O   0  0  0  0  0  0  0  0  0 19  0  0
   -2.9628   -2.2337    0.6335 H   0  0  0  0  0  0  0  0  0 20  0  0
    0.7757   -1.2856   -1.1843 H   0  0  0  0  0  0  0  0  0 21  0  0
    2.0415    1.5206   -1.2580 H   0  0  0  0  0  0  0  0  0 22  0  0
    0.1223   -0.6145    2.3602 H   0  0  0  0  0  0  0  0  0 23  0  0
   -0.9408    0.3930    0.2878 H   0  0  0  0  0  0  0  0  0 24  0  0
    1.1692    1.2451    1.2284 H   0  0  0  0  0  0  0  0  0 25  0  0
    2.0867    0.0585    0.2876 H   0  0  0  0  0  0  0  0  0 26  0  0
  2  1  1  0
  3  1  1  0
  4  1  1  0
  5  1  1  0
  6  2  1  0
  8  7  2  0
  9  8  1  0
 10  9  1  0
 10  6  1  0
 11 10  1  0
 12 11  1  0
 13 12  1  0
 14 11  1  0
 14  8  1  0
 15  9  1  0
 16 13  1  0
 17 12  1  0
 18 15  1  0
 19 10  1  0
 20 19  1  0
 21 17  1  0
 22 16  1  0
 23 11  1  0
 24 12  1  0
 25 13  1  0
 26 13  1  0
M  RAD  1   9   2
M  END
$$$$
