
     RDKit          3D

 20 20  0  0  0  0  0  0  0  0999 V2000
    4.5105    1.9035   -3.0734 O   0  0  0  0  0  0  0  0  0  1  0  0
    3.6784    1.5107   -2.2720 C   0  0  0  0  0  0  0  0  0  2  0  0
    3.2922    0.1379   -2.0663 C   0  0  0  0  0  0  0  0  0  3  0  0
    2.3735    0.1469   -1.1046 C   0  0  0  0  0  0  0  0  0  4  0  0
    2.1335    1.5747   -0.6504 C   0  0  0  0  0  0  0  0  0  5  0  0
    0.6820    2.0655   -0.8663 C   0  0  0  0  0  0  0  0  0  6  0  0
   -0.3437    1.3335    0.0165 C   0  0  0  0  0  0  0  0  0  7  0  0
    3.0012    2.3194   -1.4384 O   0  0  0  0  0  0  0  0  0  8  0  0
    3.7880   -0.9328   -2.7249 O   0  0  0  0  0  0  0  0  0  9  0  0
   -1.6270    1.8476   -0.2301 O   0  0  0  0  0  0  0  0  0 10  0  0
    0.6072    3.4499   -0.6272 O   0  0  0  0  0  0  0  0  0 11  0  0
    3.4999   -1.8371   -2.5427 H   0  0  0  0  0  0  0  0  0 12  0  0
    1.7590   -0.9438   -0.5948 O   0  0  0  0  0  0  0  0  0 13  0  0
    1.9370   -1.8404   -0.9090 H   0  0  0  0  0  0  0  0  0 14  0  0
    0.8696    3.6094    0.3174 H   0  0  0  0  0  0  0  0  0 15  0  0
   -2.0353    2.0637    0.6488 H   0  0  0  0  0  0  0  0  0 16  0  0
    2.4179    1.6877    0.4185 H   0  0  0  0  0  0  0  0  0 17  0  0
    0.4096    1.8982   -1.9320 H   0  0  0  0  0  0  0  0  0 18  0  0
   -0.3592    0.2474   -0.1999 H   0  0  0  0  0  0  0  0  0 19  0  0
   -0.0565    1.4665    1.0873 H   0  0  0  0  0  0  0  0  0 20  0  0
  2  1  2  0
  3  2  1  0
  4  3  2  0
  5  4  1  0
  6  5  1  0
  7  6  1  0
  8  5  1  0
  8  2  1  0
  9  3  1  0
 10  7  1  0
 11  6  1  0
 12  9  1  0
 13  4  1  0
 14 13  1  0
 15 11  1  0
 16 10  1  0
 17  5  1  0
 18  6  1  0
 19  7  1  0
 20  7  1  0
M  END
$$$$
