
     RDKit          3D

 19 19  0  0  0  0  0  0  0  0999 V2000
    2.6346    1.4642    0.5776 O   0  0  0  0  0  0  0  0  0  1  0  0
    2.2656    0.5844   -0.1368 C   0  0  0  0  0  0  0  0  0  2  0  0
    0.9220   -0.0777   -0.1686 C   0  0  0  0  0  0  0  0  0  3  0  0
    3.0411    0.0126   -1.0739 O   0  0  0  0  0  0  0  0  0  4  0  0
    1.0183   -1.0609   -1.1635 C   0  0  0  0  0  0  0  0  0  5  0  0
   -0.0732    0.2132    0.5033 O   0  0  0  0  0  1  0  0  0  6  0  0
    2.3383   -0.9744   -1.8427 C   0  0  0  0  0  0  0  0  0  7  0  0
    0.0651   -1.8473   -1.5439 O   0  0  0  0  0  0  0  0  0  8  0  0
    3.1853   -2.2417   -1.9685 C   0  0  0  0  0  0  0  0  0  9  0  0
    2.1867   -0.5670   -2.8487 H   0  0  0  0  0  0  0  0  0 10  0  0
    2.4279   -3.3345   -2.7211 C   0  0  0  0  0  0  0  0  0 11  0  0
    4.3804   -1.9067   -2.6275 O   0  0  0  0  0  0  0  0  0 12  0  0
    3.4642   -2.5934   -0.9728 H   0  0  0  0  0  0  0  0  0 13  0  0
    3.2698   -4.4389   -2.9502 O   0  0  0  0  0  0  0  0  0 14  0  0
    1.5714   -3.6706   -2.1380 H   0  0  0  0  0  0  0  0  0 15  0  0
    2.0574   -2.9252   -3.6658 H   0  0  0  0  0  0  0  0  0 16  0  0
    3.6379   -4.3876   -3.8361 H   0  0  0  0  0  0  0  0  0 17  0  0
    4.1933   -1.6725   -3.5489 H   0  0  0  0  0  0  0  0  0 18  0  0
   -0.7433   -1.6979   -1.0182 H   0  0  0  0  0  0  0  0  0 19  0  0
  2  1  2  0
  3  2  1  0
  4  2  1  0
  5  3  2  0
  6  3  1  0
  7  5  1  0
  7  4  1  0
  8  5  1  0
  9  7  1  0
 10  7  1  0
 11  9  1  0
 12  9  1  0
 13  9  1  0
 14 11  1  0
 15 11  1  0
 16 11  1  0
 17 14  1  0
 18 12  1  0
 19  8  1  0
M  RAD  1   6   2
M  END
$$$$
