./product.xyz#2
 OpenBabel07172514093D

 19 19  0  0  1  0  0  0  0  0999 V2000
    2.6346    1.4642    0.5776 O   0  0  0  0  0  1  0  0  0  0  0  0
    2.2656    0.5844   -0.1368 C   0  0  2  0  0  3  0  0  0  0  0  0
    0.9220   -0.0777   -0.1686 C   0  0  2  0  0  3  0  0  0  0  0  0
    1.0183   -1.0609   -1.1635 C   0  0  2  0  0  3  0  0  0  0  0  0
    2.3383   -0.9744   -1.8427 C   0  0  2  0  0  0  0  0  0  0  0  0
    3.1853   -2.2417   -1.9685 C   0  0  1  0  0  0  0  0  0  0  0  0
    2.4279   -3.3345   -2.7211 C   0  0  0  0  0  0  0  0  0  0  0  0
    3.0411    0.0126   -1.0739 O   0  0  0  0  0  0  0  0  0  0  0  0
   -0.0732    0.2132    0.5033 O   0  0  0  0  0  1  0  0  0  0  0  0
    3.2698   -4.4389   -2.9502 O   0  0  0  0  0  0  0  0  0  0  0  0
    4.3804   -1.9067   -2.6275 O   0  0  0  0  0  0  0  0  0  0  0  0
    0.0651   -1.8473   -1.5439 O   0  0  0  0  0  0  0  0  0  0  0  0
   -0.7433   -1.6979   -1.0182 H   0  0  0  0  0  0  0  0  0  0  0  0
    4.1933   -1.6725   -3.5489 H   0  0  0  0  0  0  0  0  0  0  0  0
    3.6379   -4.3876   -3.8361 H   0  0  0  0  0  0  0  0  0  0  0  0
    2.1867   -0.5670   -2.8487 H   0  0  0  0  0  0  0  0  0  0  0  0
    3.4642   -2.5934   -0.9728 H   0  0  0  0  0  0  0  0  0  0  0  0
    1.5714   -3.6706   -2.1380 H   0  0  0  0  0  0  0  0  0  0  0  0
    2.0574   -2.9252   -3.6658 H   0  0  0  0  0  0  0  0  0  0  0  0
  2  8  1  0  0  0  0
  2  3  1  0  0  0  0
  2  1  1  1  0  0  0
  3  4  1  0  0  0  0
  3  9  1  6  0  0  0
  4  5  1  0  0  0  0
  4 12  1  6  0  0  0
  5 16  1  6  0  0  0
  5  6  1  0  0  0  0
  5  8  1  0  0  0  0
  6  7  1  0  0  0  0
  6 11  1  0  0  0  0
  6 17  1  1  0  0  0
  7 19  1  0  0  0  0
  7 10  1  0  0  0  0
  7 18  1  0  0  0  0
 10 15  1  0  0  0  0
 11 14  1  0  0  0  0
 12 13  1  0  0  0  0
M  END
