./product.xyz#2
 OpenBabel10242512443D

 18 18  0  0  1  0  0  0  0  0999 V2000
    1.8335   -1.3752    2.2905 O   0  0  0  0  0  1  0  0  0  0  0  0
    1.6691   -1.5468    1.1344 C   0  0  1  0  0  3  0  0  0  0  0  0
    0.8102   -0.7078    0.1862 C   0  0  2  0  0  3  0  0  0  0  0  0
    2.2353   -2.5399    0.4177 O   0  0  0  0  0  0  0  0  0  0  0  0
    0.9200   -1.3978   -1.1685 C   0  0  2  0  0  3  0  0  0  0  0  0
    0.2270    0.2936    0.4472 O   0  0  0  0  0  1  0  0  0  0  0  0
    1.9154   -2.5270   -0.9756 C   0  0  2  0  0  0  0  0  0  0  0  0
    0.3545   -1.1033   -2.1704 O   0  0  0  0  0  1  0  0  0  0  0  0
    1.3296   -3.8403   -1.4570 C   0  0  1  0  0  0  0  0  0  0  0  0
    2.8258   -2.3035   -1.5396 H   0  0  0  0  0  0  0  0  0  0  0  0
    2.2990   -5.0046   -1.4124 C   0  0  0  0  0  0  0  0  0  0  0  0
    0.1881   -4.1045   -0.6930 O   0  0  0  0  0  0  0  0  0  0  0  0
    1.0564   -3.6543   -2.5074 H   0  0  0  0  0  0  0  0  0  0  0  0
    1.6621   -6.1477   -1.9365 O   0  0  0  0  0  0  0  0  0  0  0  0
    3.2146   -4.7613   -1.9605 H   0  0  0  0  0  0  0  0  0  0  0  0
    2.5564   -5.2313   -0.3774 H   0  0  0  0  0  0  0  0  0  0  0  0
    1.5439   -6.0423   -2.8860 H   0  0  0  0  0  0  0  0  0  0  0  0
   -0.0557   -5.0279   -0.8197 H   0  0  0  0  0  0  0  0  0  0  0  0
  2  3  1  0  0  0  0
  2  4  1  0  0  0  0
  2  1  1  6  0  0  0
  3  5  1  0  0  0  0
  3  6  1  6  0  0  0
  4  7  1  0  0  0  0
  5  8  1  6  0  0  0
  5  7  1  0  0  0  0
  7 10  1  6  0  0  0
  7  9  1  0  0  0  0
  9 13  1  6  0  0  0
  9 11  1  0  0  0  0
  9 12  1  0  0  0  0
 11 15  1  0  0  0  0
 11 14  1  0  0  0  0
 11 16  1  0  0  0  0
 12 18  1  0  0  0  0
 14 17  1  0  0  0  0
M  END
