./product.xyz
 OpenBabel07172514093D

 26 26  0  0  1  0  0  0  0  0999 V2000
   -1.8484   -3.4433    3.3476 C   0  0  0  0  0  0  0  0  0  0  0  0
   -0.7338   -3.2552    2.4916 O   0  0  0  0  0  0  0  0  0  0  0  0
   -1.7055   -4.4355    3.7722 H   0  0  0  0  0  0  0  0  0  0  0  0
   -2.7792   -3.4028    2.7826 H   0  0  0  0  0  0  0  0  0  0  0  0
   -1.8408   -2.6962    4.1411 H   0  0  0  0  0  0  0  0  0  0  0  0
   -0.7686   -1.9300    2.0005 O   0  0  0  0  0  0  0  0  0  0  0  0
   -2.2185   -4.0601    0.0589 O   0  0  0  0  0  1  0  0  0  0  0  0
   -1.3486   -3.2476    0.0590 C   0  0  2  0  0  3  0  0  0  0  0  0
   -1.3736   -1.8635    0.7140 C   0  0  2  0  0  0  0  0  0  0  0  0
   -0.4237   -1.1539   -0.1819 C   0  0  2  0  0  3  0  0  0  0  0  0
    0.5900   -2.1828   -0.5792 C   0  0  2  0  0  0  0  0  0  0  0  0
    1.2845   -2.0372   -1.9221 C   0  0  1  0  0  0  0  0  0  0  0  0
    2.1243   -0.7687   -1.9849 C   0  0  0  0  0  0  0  0  0  0  0  0
   -0.1888   -3.3976   -0.5840 O   0  0  0  0  0  0  0  0  0  0  0  0
   -2.6222   -1.3034    0.8707 O   0  0  0  0  0  0  0  0  0  0  0  0
    2.7547   -0.6583   -3.2379 O   0  0  0  0  0  0  0  0  0  0  0  0
    2.0948   -3.1671   -2.1564 O   0  0  0  0  0  0  0  0  0  0  0  0
   -3.0308   -1.1509    0.0077 H   0  0  0  0  0  0  0  0  0  0  0  0
   -0.0632    0.1116    0.0440 O   0  0  0  0  0  0  0  0  0  0  0  0
   -0.7688    0.5967    0.4988 H   0  0  0  0  0  0  0  0  0  0  0  0
    2.7823   -3.2189   -1.4800 H   0  0  0  0  0  0  0  0  0  0  0  0
    3.4366   -1.3329   -3.3300 H   0  0  0  0  0  0  0  0  0  0  0  0
    1.3565   -2.2849    0.2032 H   0  0  0  0  0  0  0  0  0  0  0  0
    0.5361   -2.0189   -2.7183 H   0  0  0  0  0  0  0  0  0  0  0  0
    1.4970    0.1124   -1.8583 H   0  0  0  0  0  0  0  0  0  0  0  0
    2.8617   -0.7855   -1.1727 H   0  0  0  0  0  0  0  0  0  0  0  0
  1  2  1  0  0  0  0
  1  4  1  0  0  0  0
  1  3  1  0  0  0  0
  1  5  1  0  0  0  0
  2  6  1  0  0  0  0
  6  9  1  0  0  0  0
  8 14  1  0  0  0  0
  8  7  1  6  0  0  0
  8  9  1  0  0  0  0
  9 10  1  0  0  0  0
  9 15  1  1  0  0  0
 10 11  1  0  0  0  0
 10 19  1  1  0  0  0
 11 12  1  0  0  0  0
 11 14  1  0  0  0  0
 11 23  1  1  0  0  0
 12 24  1  6  0  0  0
 12 17  1  0  0  0  0
 12 13  1  0  0  0  0
 13 16  1  0  0  0  0
 13 25  1  0  0  0  0
 13 26  1  0  0  0  0
 15 18  1  0  0  0  0
 16 22  1  0  0  0  0
 17 21  1  0  0  0  0
 19 20  1  0  0  0  0
M  END
