./product.xyz
 OpenBabel07172514093D

 26 26  0  0  1  0  0  0  0  0999 V2000
   -0.7474   -3.9143    4.2831 C   0  0  0  0  0  0  0  0  0  0  0  0
   -0.4354   -2.7031    3.6215 O   0  0  0  0  0  0  0  0  0  0  0  0
    0.1409   -4.1648    4.8619 H   0  0  0  0  0  0  0  0  0  0  0  0
   -0.9624   -4.7052    3.5624 H   0  0  0  0  0  0  0  0  0  0  0  0
   -1.5969   -3.7763    4.9519 H   0  0  0  0  0  0  0  0  0  0  0  0
   -1.6051   -2.3098    2.9291 O   0  0  0  0  0  0  0  0  0  0  0  0
    1.4172   -4.1617    0.5009 O   0  0  0  0  0  1  0  0  0  0  0  0
    0.6626   -3.2856    0.8497 C   0  0  1  0  0  3  0  0  0  0  0  0
   -0.7608   -3.3165    0.9196 C   0  0  2  0  0  3  0  0  0  0  0  0
   -1.2659   -2.0758    1.5459 C   0  0  2  0  0  0  0  0  0  0  0  0
   -0.0191   -1.1649    1.4318 C   0  0  2  0  0  0  0  0  0  0  0  0
   -0.0370   -0.2167    0.2339 C   0  0  1  0  0  0  0  0  0  0  0  0
    1.1907    0.6828    0.2915 C   0  0  0  0  0  0  0  0  0  0  0  0
    1.0859   -2.0673    1.2548 O   0  0  0  0  0  0  0  0  0  0  0  0
   -1.5410   -4.3078    0.5608 O   0  0  0  0  0  0  0  0  0  0  0  0
    1.1958    1.5683   -0.8055 O   0  0  0  0  0  0  0  0  0  0  0  0
   -0.0975   -0.9302   -0.9786 O   0  0  0  0  0  0  0  0  0  0  0  0
   -1.0363   -5.0173    0.1290 H   0  0  0  0  0  0  0  0  0  0  0  0
   -2.4141   -1.5424    1.0281 O   0  0  0  0  0  0  0  0  0  0  0  0
   -2.9628   -2.2337    0.6335 H   0  0  0  0  0  0  0  0  0  0  0  0
    0.7757   -1.2856   -1.1843 H   0  0  0  0  0  0  0  0  0  0  0  0
    2.0415    1.5206   -1.2580 H   0  0  0  0  0  0  0  0  0  0  0  0
    0.1223   -0.6145    2.3602 H   0  0  0  0  0  0  0  0  0  0  0  0
   -0.9408    0.3930    0.2878 H   0  0  0  0  0  0  0  0  0  0  0  0
    1.1692    1.2451    1.2284 H   0  0  0  0  0  0  0  0  0  0  0  0
    2.0867    0.0585    0.2876 H   0  0  0  0  0  0  0  0  0  0  0  0
  1  4  1  0  0  0  0
  1  2  1  0  0  0  0
  1  3  1  0  0  0  0
  1  5  1  0  0  0  0
  2  6  1  0  0  0  0
  6 10  1  0  0  0  0
  8  7  1  1  0  0  0
  8  9  1  0  0  0  0
  8 14  1  0  0  0  0
  9 15  1  1  0  0  0
  9 10  1  0  0  0  0
 10 19  1  6  0  0  0
 10 11  1  0  0  0  0
 11 12  1  0  0  0  0
 11 14  1  0  0  0  0
 11 23  1  1  0  0  0
 12 17  1  0  0  0  0
 12 24  1  1  0  0  0
 12 13  1  0  0  0  0
 13 16  1  0  0  0  0
 13 26  1  0  0  0  0
 13 25  1  0  0  0  0
 15 18  1  0  0  0  0
 16 22  1  0  0  0  0
 17 21  1  0  0  0  0
 19 20  1  0  0  0  0
M  END
