
     RDKit          3D

 25 25  0  0  0  0  0  0  0  0999 V2000
    4.3516    3.4738    1.5084 C   0  0  0  0  0  0  0  0  0  1  0  0
    3.5870    2.2877    1.5578 O   0  0  0  0  0  0  0  0  0  2  0  0
    3.9492    4.1757    0.7749 H   0  0  0  0  0  0  0  0  0  3  0  0
    5.3922    3.2471    1.2761 H   0  0  0  0  0  0  0  0  0  4  0  0
    4.2715    3.8976    2.5075 H   0  0  0  0  0  0  0  0  0  5  0  0
    3.6734    1.6863    0.2792 O   0  0  0  0  0  0  0  0  0  6  0  0
    0.4111    4.3360    0.9976 O   0  0  0  0  0  0  0  0  0  7  0  0
    0.9103    3.3055    0.7033 C   0  0  0  0  0  0  0  0  0  8  0  0
    1.8025    2.9905   -0.4948 C   0  0  0  0  0  0  0  0  0  9  0  0
    0.8103    2.1741    1.4252 O   0  0  0  0  0  0  0  0  0 10  0  0
    2.3623    1.5929   -0.2586 C   0  0  0  0  0  0  0  0  0 11  0  0
    2.0168    3.6793   -1.4373 O   0  0  0  0  0  0  0  0  0 12  0  0
    1.3570    1.0216    0.7572 C   0  0  0  0  0  0  0  0  0 13  0  0
    2.4816    0.8721   -1.4062 O   0  0  0  0  0  0  0  0  0 14  0  0
    0.2088    0.2726    0.0855 C   0  0  0  0  0  0  0  0  0 15  0  0
    1.8650    0.4175    1.5071 H   0  0  0  0  0  0  0  0  0 16  0  0
   -0.7791   -0.2905    1.1027 C   0  0  0  0  0  0  0  0  0 17  0  0
   -0.4460    1.1554   -0.7905 O   0  0  0  0  0  0  0  0  0 18  0  0
    0.6374   -0.5442   -0.4985 H   0  0  0  0  0  0  0  0  0 19  0  0
   -1.5706    0.7280    1.6651 O   0  0  0  0  0  0  0  0  0 20  0  0
   -1.4680   -0.9607    0.5890 H   0  0  0  0  0  0  0  0  0 21  0  0
   -0.2460   -0.8648    1.8670 H   0  0  0  0  0  0  0  0  0 22  0  0
   -1.0079    1.3513    2.1375 H   0  0  0  0  0  0  0  0  0 23  0  0
   -1.2132    1.5107   -0.3206 H   0  0  0  0  0  0  0  0  0 24  0  0
    2.7135    1.4749   -2.1273 H   0  0  0  0  0  0  0  0  0 25  0  0
  2  1  1  0
  3  1  1  0
  4  1  1  0
  5  1  1  0
  6  2  1  0
  8  7  2  0
  9  8  1  0
 10  8  1  0
 11  9  1  0
 11  6  1  0
 12  9  2  0
 13 11  1  0
 13 10  1  0
 14 11  1  0
 15 13  1  0
 16 13  1  0
 17 15  1  0
 18 15  1  0
 19 15  1  0
 20 17  1  0
 21 17  1  0
 22 17  1  0
 23 20  1  0
 24 18  1  0
 25 14  1  0
M  END
$$$$
