
     RDKit          3D

  7  6  0  0  0  0  0  0  0  0999 V2000
   -1.0750   -4.3578   -1.5011 C   0  0  0  0  0  0  0  0  0  1  0  0
   -0.4969   -3.4434   -0.6034 O   0  0  0  0  0  0  0  0  0  2  0  0
   -2.1624   -4.3485   -1.4102 H   0  0  0  0  0  0  0  0  0  3  0  0
   -0.6867   -5.3306   -1.2066 H   0  0  0  0  0  0  0  0  0  4  0  0
   -0.7814   -4.1311   -2.5270 H   0  0  0  0  0  0  0  0  0  5  0  0
   -1.0213   -2.1722   -0.9580 O   0  0  0  0  0  0  0  0  0  6  0  0
   -0.2868   -1.5749   -0.7247 H   0  0  0  0  0  0  0  0  0  7  0  0
  2  1  1  0
  3  1  1  0
  4  1  1  0
  5  1  1  0
  6  2  1  0
  7  6  1  0
M  END
$$$$
