
     RDKit          3D

  6  5  0  0  0  0  0  0  0  0999 V2000
   -2.8022    1.0567    0.0362 C   0  0  0  0  0  0  0  0  0  1  0  0
   -1.4655    0.7755    0.3453 O   0  0  0  0  0  0  0  0  0  2  0  0
   -3.4509    0.3451    0.5873 H   0  0  0  0  0  0  0  0  0  3  0  0
   -2.9935    0.9157   -1.0505 H   0  0  0  0  0  0  0  0  0  4  0  0
   -3.0744    2.0845    0.3632 H   0  0  0  0  0  0  0  0  0  5  0  0
   -0.7500    1.6483   -0.3373 O   0  0  0  0  0  1  0  0  0  6  0  0
  2  1  1  0
  3  1  1  0
  4  1  1  0
  5  1  1  0
  6  2  1  0
M  RAD  1   6   2
M  END
$$$$
