
     RDKit          3D

 18 18  0  0  0  0  0  0  0  0999 V2000
    1.8335   -1.3752    2.2905 O   0  0  0  0  0  0  0  0  0  1  0  0
    1.6691   -1.5468    1.1344 C   0  0  0  0  0  0  0  0  0  2  0  0
    0.8102   -0.7078    0.1862 C   0  0  0  0  0  0  0  0  0  3  0  0
    2.2353   -2.5399    0.4177 O   0  0  0  0  0  0  0  0  0  4  0  0
    0.9200   -1.3978   -1.1685 C   0  0  0  0  0  0  0  0  0  5  0  0
    0.2270    0.2936    0.4472 O   0  0  0  0  0  0  0  0  0  6  0  0
    1.9154   -2.5270   -0.9756 C   0  0  0  0  0  0  0  0  0  7  0  0
    0.3545   -1.1033   -2.1704 O   0  0  0  0  0  0  0  0  0  8  0  0
    1.3296   -3.8403   -1.4570 C   0  0  0  0  0  0  0  0  0  9  0  0
    2.8258   -2.3035   -1.5396 H   0  0  0  0  0  0  0  0  0 10  0  0
    2.2990   -5.0046   -1.4124 C   0  0  0  0  0  0  0  0  0 11  0  0
    0.1881   -4.1045   -0.6930 O   0  0  0  0  0  0  0  0  0 12  0  0
    1.0564   -3.6543   -2.5074 H   0  0  0  0  0  0  0  0  0 13  0  0
    1.6621   -6.1477   -1.9365 O   0  0  0  0  0  0  0  0  0 14  0  0
    3.2146   -4.7613   -1.9605 H   0  0  0  0  0  0  0  0  0 15  0  0
    2.5564   -5.2313   -0.3774 H   0  0  0  0  0  0  0  0  0 16  0  0
   -0.0557   -5.0279   -0.8197 H   0  0  0  0  0  0  0  0  0 17  0  0
    1.5439   -6.0423   -2.8860 H   0  0  0  0  0  0  0  0  0 18  0  0
  2  1  2  0
  3  2  1  0
  4  2  1  0
  5  3  1  0
  6  3  2  0
  7  5  1  0
  7  4  1  0
  8  5  2  0
  9  7  1  0
 10  7  1  0
 11  9  1  0
 12  9  1  0
 13  9  1  0
 14 11  1  0
 15 11  1  0
 16 11  1  0
 17 12  1  0
 18 14  1  0
M  END
$$$$
