
     RDKit          3D

 18 18  0  0  0  0  0  0  0  0999 V2000
    2.9541    2.3052    2.2679 O   0  0  0  0  0  0  0  0  0  1  0  0
    2.3158    1.3170    2.2069 C   0  0  0  0  0  0  0  0  0  2  0  0
    2.3709    0.0453    3.0696 C   0  0  0  0  0  0  0  0  0  3  0  0
    1.3650    1.0844    1.2506 O   0  0  0  0  0  0  0  0  0  4  0  0
    1.4370   -0.8606    2.4309 C   0  0  0  0  0  0  0  0  0  5  0  0
    3.0525   -0.1376    4.0350 O   0  0  0  0  0  0  0  0  0  6  0  0
    0.8989   -0.2245    1.3813 C   0  0  0  0  0  0  0  0  0  7  0  0
    1.1858   -2.0873    2.9065 O   0  0  0  0  0  0  0  0  0  8  0  0
   -0.0592   -0.6901    0.3178 C   0  0  0  0  0  0  0  0  0  9  0  0
    1.7438   -2.2217    3.6859 H   0  0  0  0  0  0  0  0  0 10  0  0
   -0.0938    0.2778   -0.8601 C   0  0  0  0  0  0  0  0  0 11  0  0
    0.2954   -1.9790   -0.1025 O   0  0  0  0  0  0  0  0  0 12  0  0
   -1.0624   -0.7518    0.7487 H   0  0  0  0  0  0  0  0  0 13  0  0
    1.1829    0.3954   -1.4406 O   0  0  0  0  0  0  0  0  0 14  0  0
   -0.7507   -0.1578   -1.6129 H   0  0  0  0  0  0  0  0  0 15  0  0
   -0.4984    1.2437   -0.5533 H   0  0  0  0  0  0  0  0  0 16  0  0
    1.0956   -1.8993   -0.6372 H   0  0  0  0  0  0  0  0  0 17  0  0
    1.6892    1.0441   -0.9428 H   0  0  0  0  0  0  0  0  0 18  0  0
  2  1  2  0
  3  2  1  0
  4  2  1  0
  5  3  1  0
  6  3  2  0
  7  5  2  0
  7  4  1  0
  8  5  1  0
  9  7  1  0
 10  8  1  0
 11  9  1  0
 12  9  1  0
 13  9  1  0
 14 11  1  0
 15 11  1  0
 16 11  1  0
 17 12  1  0
 18 14  1  0
M  END
$$$$
