
     RDKit          3D

 19 19  0  0  0  0  0  0  0  0999 V2000
   -3.4469   -0.0914   -2.8955 O   0  0  0  0  0  0  0  0  0  1  0  0
   -2.7777    0.4568   -2.0620 C   0  0  0  0  0  0  0  0  0  2  0  0
   -2.4567    1.8533   -1.8682 C   0  0  0  0  0  0  0  0  0  3  0  0
   -2.1534   -0.2403   -1.0601 O   0  0  0  0  0  0  0  0  0  4  0  0
   -1.6134    1.9362   -0.7791 C   0  0  0  0  0  0  0  0  0  5  0  0
   -2.9527    2.7762   -2.6794 O   0  0  0  0  0  0  0  0  0  6  0  0
   -1.4402    0.6412   -0.2823 C   0  0  0  0  0  3  0  0  0  7  0  0
   -1.0570    3.0143   -0.2212 O   0  0  0  0  0  0  0  0  0  8  0  0
   -0.2560    0.0142    0.3965 C   0  0  0  0  0  0  0  0  0  9  0  0
   -0.6926   -1.1352    1.2982 C   0  0  0  0  0  0  0  0  0 10  0  0
    0.6468   -0.4205   -0.5962 O   0  0  0  0  0  0  0  0  0 11  0  0
    0.2601    0.7768    0.9819 H   0  0  0  0  0  0  0  0  0 12  0  0
    0.4397   -1.6992    1.9122 O   0  0  0  0  0  0  0  0  0 13  0  0
   -1.3855   -0.7487    2.0515 H   0  0  0  0  0  0  0  0  0 14  0  0
   -1.2211   -1.8767    0.6939 H   0  0  0  0  0  0  0  0  0 15  0  0
   -2.7502    3.6788   -2.4002 H   0  0  0  0  0  0  0  0  0 16  0  0
    0.3288   -2.6514    1.9813 H   0  0  0  0  0  0  0  0  0 17  0  0
    0.2658   -1.1732   -1.0664 H   0  0  0  0  0  0  0  0  0 18  0  0
   -1.3327    3.8318   -0.6550 H   0  0  0  0  0  0  0  0  0 19  0  0
  2  1  2  0
  3  2  1  0
  4  2  1  0
  5  3  2  0
  6  3  1  0
  7  5  1  0
  7  4  1  0
  8  5  1  0
  9  7  1  0
 10  9  1  0
 11  9  1  0
 12  9  1  0
 13 10  1  0
 14 10  1  0
 15 10  1  0
 16  6  1  0
 17 13  1  0
 18 11  1  0
 19  8  1  0
M  RAD  1   7   2
M  END
$$$$
