
     RDKit          3D

 19 19  0  0  0  0  0  0  0  0999 V2000
    3.5347    2.8468    1.6340 O   0  0  0  0  0  0  0  0  0  1  0  0
    2.8236    1.9195    1.3802 C   0  0  0  0  0  0  0  0  0  2  0  0
    1.9858    1.6892    0.2064 C   0  0  0  0  0  0  0  0  0  3  0  0
    2.6820    0.8535    2.1928 O   0  0  0  0  0  0  0  0  0  4  0  0
    1.3466    0.4303    0.3347 C   0  0  0  0  0  0  0  0  0  5  0  0
    1.8811    2.5128   -0.7880 O   0  0  0  0  0  0  0  0  0  6  0  0
    1.8482   -0.1704    1.6306 C   0  0  0  0  0  0  0  0  0  7  0  0
    0.5912   -0.0482   -0.4978 O   0  0  0  0  0  1  0  0  0  8  0  0
    0.7940   -0.6271    2.6413 C   0  0  0  0  0  0  0  0  0  9  0  0
    2.4856   -1.0254    1.3895 H   0  0  0  0  0  0  0  0  0 10  0  0
   -0.2360   -1.4923    1.9264 C   0  0  0  0  0  0  0  0  0 11  0  0
    1.4329   -1.3165    3.6842 O   0  0  0  0  0  0  0  0  0 12  0  0
    0.3229    0.2539    3.0814 H   0  0  0  0  0  0  0  0  0 13  0  0
   -1.0154   -2.1809    2.8737 O   0  0  0  0  0  0  0  0  0 14  0  0
   -0.8604   -0.8550    1.3001 H   0  0  0  0  0  0  0  0  0 15  0  0
    0.2913   -2.2066    1.2851 H   0  0  0  0  0  0  0  0  0 16  0  0
    1.2710    2.1623   -1.4637 H   0  0  0  0  0  0  0  0  0 17  0  0
   -1.4466   -2.9202    2.4333 H   0  0  0  0  0  0  0  0  0 18  0  0
    1.5151   -2.2492    3.4499 H   0  0  0  0  0  0  0  0  0 19  0  0
  2  1  2  0
  3  2  1  0
  4  2  1  0
  5  3  2  0
  6  3  1  0
  7  5  1  0
  7  4  1  0
  8  5  1  0
  9  7  1  0
 10  7  1  0
 11  9  1  0
 12  9  1  0
 13  9  1  0
 14 11  1  0
 15 11  1  0
 16 11  1  0
 17  6  1  0
 18 14  1  0
 19 12  1  0
M  RAD  1   8   2
M  END
$$$$
