
     RDKit          3D

 19 19  0  0  0  0  0  0  0  0999 V2000
    2.1216   -1.5035    5.5799 O   0  0  0  0  0  0  0  0  0  1  0  0
    1.4937   -1.4026    4.5610 C   0  0  0  0  0  0  0  0  0  2  0  0
    0.3052   -2.1304    4.1351 C   0  0  0  0  0  0  0  0  0  3  0  0
    1.8266   -0.5104    3.6000 O   0  0  0  0  0  0  0  0  0  4  0  0
   -0.0366   -1.6700    2.9330 C   0  0  0  0  0  0  0  0  0  5  0  0
   -0.2544   -3.0385    4.9530 O   0  0  0  0  0  0  0  0  0  6  0  0
    0.9450   -0.6358    2.4875 C   0  0  0  0  0  0  0  0  0  7  0  0
   -1.0725   -1.9520    2.1493 O   0  0  0  0  0  0  0  0  0  8  0  0
    1.7848   -0.9918    1.2339 C   0  0  0  0  0  0  0  0  0  9  0  0
    0.4496    0.3242    2.3234 H   0  0  0  0  0  0  0  0  0 10  0  0
    1.0182   -1.7063    0.1727 C   0  0  0  0  0  3  0  0  0 11  0  0
    2.3764    0.1893    0.7419 O   0  0  0  0  0  0  0  0  0 12  0  0
    2.5911   -1.6447    1.5734 H   0  0  0  0  0  0  0  0  0 13  0  0
    0.1434   -0.9140   -0.4879 O   0  0  0  0  0  0  0  0  0 14  0  0
    0.7668   -2.7528    0.2856 H   0  0  0  0  0  0  0  0  0 15  0  0
   -1.0632   -3.4077    4.5790 H   0  0  0  0  0  0  0  0  0 16  0  0
   -0.5075   -1.4350   -0.9723 H   0  0  0  0  0  0  0  0  0 17  0  0
    1.7011    0.7145    0.2930 H   0  0  0  0  0  0  0  0  0 18  0  0
   -1.6515   -2.6255    2.5288 H   0  0  0  0  0  0  0  0  0 19  0  0
  2  1  2  0
  3  2  1  0
  4  2  1  0
  5  3  2  0
  6  3  1  0
  7  5  1  0
  7  4  1  0
  8  5  1  0
  9  7  1  0
 10  7  1  0
 11  9  1  0
 12  9  1  0
 13  9  1  0
 14 11  1  0
 15 11  1  0
 16  6  1  0
 17 14  1  0
 18 12  1  0
 19  8  1  0
M  RAD  1  11   2
M  END
$$$$
