
     RDKit          3D

 25 25  0  0  0  0  0  0  0  0999 V2000
    0.0711   -0.0284   -0.5797 C   0  0  0  0  0  0  0  0  0  1  0  0
    0.3910    1.2515   -1.0766 O   0  0  0  0  0  0  0  0  0  2  0  0
    0.4507   -0.7988   -1.2499 H   0  0  0  0  0  0  0  0  0  3  0  0
   -1.0078   -0.1256   -0.4626 H   0  0  0  0  0  0  0  0  0  4  0  0
    0.5595   -0.0939    0.3898 H   0  0  0  0  0  0  0  0  0  5  0  0
   -0.3478    1.3229   -2.2927 O   0  0  0  0  0  0  0  0  0  6  0  0
    2.6029    1.2521   -3.3084 O   0  0  0  0  0  0  0  0  0  7  0  0
    1.8590    2.1042   -2.9527 C   0  0  0  0  0  0  0  0  0  8  0  0
    0.3543    2.1234   -3.2316 C   0  0  0  0  0  0  0  0  0  9  0  0
    2.2282    3.2296   -2.3297 O   0  0  0  0  0  0  0  0  0 10  0  0
   -0.0101    3.5778   -2.9421 C   0  0  0  0  0  0  0  0  0 11  0  0
    0.0465    1.6948   -4.4800 O   0  0  0  0  0  0  0  0  0 12  0  0
    1.1226    4.0947   -2.0570 C   0  0  0  0  0  0  0  0  0 13  0  0
   -0.9824    4.1697   -3.2713 O   0  0  0  0  0  0  0  0  0 14  0  0
    1.4380    5.5521   -2.3041 C   0  0  0  0  0  0  0  0  0 15  0  0
    0.8291    3.9582   -1.0105 H   0  0  0  0  0  0  0  0  0 16  0  0
    2.6003    6.0560   -1.4670 C   0  0  0  0  0  0  0  0  0 17  0  0
    1.6891    5.7460   -3.6678 O   0  0  0  0  0  0  0  0  0 18  0  0
    0.5260    6.0909   -2.0024 H   0  0  0  0  0  0  0  0  0 19  0  0
    2.7239    7.4517   -1.6287 O   0  0  0  0  0  0  0  0  0 20  0  0
    2.4743    5.7768   -0.4169 H   0  0  0  0  0  0  0  0  0 21  0  0
    3.5245    5.6127   -1.8387 H   0  0  0  0  0  0  0  0  0 22  0  0
    0.6025    0.9265   -4.6802 H   0  0  0  0  0  0  0  0  0 23  0  0
    1.9984    7.8932   -1.1782 H   0  0  0  0  0  0  0  0  0 24  0  0
    2.0114    6.6454   -3.7892 H   0  0  0  0  0  0  0  0  0 25  0  0
  2  1  1  0
  3  1  1  0
  4  1  1  0
  5  1  1  0
  6  2  1  0
  8  7  2  0
  9  8  1  0
  9  6  1  0
 10  8  1  0
 11  9  1  0
 12  9  1  0
 13 11  1  0
 13 10  1  0
 14 11  2  0
 15 13  1  0
 16 13  1  0
 17 15  1  0
 18 15  1  0
 19 15  1  0
 20 17  1  0
 21 17  1  0
 22 17  1  0
 23 12  1  0
 24 20  1  0
 25 18  1  0
M  END
$$$$
